<NUMBER OF ZONES> 2
<TOTAL OD FLOW> 11000.0
<END OF METADATA>


Origin 	1 
    2 :    100.0; 3 :    700; 4 :    1000;

Origin 	2 
    1 :    900.0; 3 :    400; 4 :    900;

Origin 	3 
    2 :    300.0; 1 :    900; 4 :    800;

Origin 	4 
    2 :    800.0; 3 :    100; 1 :    400;




