<NUMBER OF ZONES> 4											
<NUMBER OF NODES> 4											
<FIRST THRU NODE> 1											
<NUMBER OF LINKS> 8											
<END OF METADATA>											
											
											
~ 	Init node 	Term node 	Capacity 	Length 	Free Flow Time 	B	Power	Speed limit 	Toll 	Type	;
	1	2	250	3	4.5	0.15	4	0	0	1	;
	1	3	500	3	9	0.15	4	0	0	1	;
	2	1	250	3	4.5	0.15	4	0	0	1	;
	2	4	250	3	4.5	0.15	4	0	0	1	;
	3	1	250	3	4.5	0.15	4	0	0	1	;
	3	4	500	3	9	0.15	4	0	0	1	;
	4	2	500	3	9	0.15	4	0	0	1	;
	4	3	250	3	4.5	0.15	4	0	0	1	;
