<NUMBER OF ZONES> 98											
<NUMBER OF NODES> 975											
<FIRST THRU NODE> 99											
<NUMBER OF LINKS> 2184											
<END OF METADATA> 											
											
											
~ 	Init node 	Term node 	Capacity 	Length 	Free Flow Time 	B 	Power 	Speed limit 	Toll 	Type 	; 
 	1	817	999999	0	0.0001	0	4	0	0	0	; 
 	1	818	999999	0	0.0001	0	4	0	0	0	; 
 	1	821	999999	0	0.0001	0	4	0	0	0	; 
 	1	822	999999	0	0.0001	0	4	0	0	0	; 
 	2	751	999999	0	0.0001	0	4	0	0	0	; 
 	2	753	999999	0	0.0001	0	4	0	0	0	; 
 	2	754	999999	0	0.0001	0	4	0	0	0	; 
 	2	781	999999	0	0.0001	0	4	0	0	0	; 
 	3	756	999999	0	0.0001	0	4	0	0	0	; 
 	3	757	999999	0	0.0001	0	4	0	0	0	; 
 	3	758	999999	0	0.0001	0	4	0	0	0	; 
 	3	759	999999	0	0.0001	0	4	0	0	0	; 
 	4	719	999999	0	0.0001	0	4	0	0	0	; 
 	4	724	999999	0	0.0001	0	4	0	0	0	; 
 	4	725	999999	0	0.0001	0	4	0	0	0	; 
 	4	761	999999	0	0.0001	0	4	0	0	0	; 
 	5	752	999999	0	0.0001	0	4	0	0	0	; 
 	5	753	999999	0	0.0001	0	4	0	0	0	; 
 	5	892	999999	0	0.0001	0	4	0	0	0	; 
 	5	893	999999	0	0.0001	0	4	0	0	0	; 
 	6	679	999999	0	0.0001	0	4	0	0	0	; 
 	6	707	999999	0	0.0001	0	4	0	0	0	; 
 	6	762	999999	0	0.0001	0	4	0	0	0	; 
 	6	809	999999	0	0.0001	0	4	0	0	0	; 
 	7	222	999999	0	0.0001	0	4	0	0	0	; 
 	7	223	999999	0	0.0001	0	4	0	0	0	; 
 	7	232	999999	0	0.0001	0	4	0	0	0	; 
 	7	241	999999	0	0.0001	0	4	0	0	0	; 
 	8	899	999999	0	0.0001	0	4	0	0	0	; 
 	8	900	999999	0	0.0001	0	4	0	0	0	; 
 	8	901	999999	0	0.0001	0	4	0	0	0	; 
 	8	904	999999	0	0.0001	0	4	0	0	0	; 
 	9	588	999999	0	0.0001	0	4	0	0	0	; 
 	9	651	999999	0	0.0001	0	4	0	0	0	; 
 	9	659	999999	0	0.0001	0	4	0	0	0	; 
 	9	902	999999	0	0.0001	0	4	0	0	0	; 
 	10	564	999999	0	0.0001	0	4	0	0	0	; 
 	10	566	999999	0	0.0001	0	4	0	0	0	; 
 	10	568	999999	0	0.0001	0	4	0	0	0	; 
 	10	570	999999	0	0.0001	0	4	0	0	0	; 
 	11	258	999999	0	0.0001	0	4	0	0	0	; 
 	11	784	999999	0	0.0001	0	4	0	0	0	; 
 	11	788	999999	0	0.0001	0	4	0	0	0	; 
 	11	792	999999	0	0.0001	0	4	0	0	0	; 
 	12	433	999999	0	0.0001	0	4	0	0	0	; 
 	12	437	999999	0	0.0001	0	4	0	0	0	; 
 	12	443	999999	0	0.0001	0	4	0	0	0	; 
 	12	444	999999	0	0.0001	0	4	0	0	0	; 
 	13	649	999999	0	0.0001	0	4	0	0	0	; 
 	13	684	999999	0	0.0001	0	4	0	0	0	; 
 	13	686	999999	0	0.0001	0	4	0	0	0	; 
 	13	974	999999	0	0.0001	0	4	0	0	0	; 
 	14	462	999999	0	0.0001	0	4	0	0	0	; 
 	14	463	999999	0	0.0001	0	4	0	0	0	; 
 	14	464	999999	0	0.0001	0	4	0	0	0	; 
 	14	467	999999	0	0.0001	0	4	0	0	0	; 
 	15	648	999999	0	0.0001	0	4	0	0	0	; 
 	15	658	999999	0	0.0001	0	4	0	0	0	; 
 	15	660	999999	0	0.0001	0	4	0	0	0	; 
 	15	674	999999	0	0.0001	0	4	0	0	0	; 
 	16	366	999999	0	0.0001	0	4	0	0	0	; 
 	16	767	999999	0	0.0001	0	4	0	0	0	; 
 	16	769	999999	0	0.0001	0	4	0	0	0	; 
 	16	770	999999	0	0.0001	0	4	0	0	0	; 
 	17	370	999999	0	0.0001	0	4	0	0	0	; 
 	17	471	999999	0	0.0001	0	4	0	0	0	; 
 	17	472	999999	0	0.0001	0	4	0	0	0	; 
 	17	474	999999	0	0.0001	0	4	0	0	0	; 
 	18	395	999999	0	0.0001	0	4	0	0	0	; 
 	18	454	999999	0	0.0001	0	4	0	0	0	; 
 	18	868	999999	0	0.0001	0	4	0	0	0	; 
 	18	870	999999	0	0.0001	0	4	0	0	0	; 
 	19	143	999999	0	0.0001	0	4	0	0	0	; 
 	19	286	999999	0	0.0001	0	4	0	0	0	; 
 	19	290	999999	0	0.0001	0	4	0	0	0	; 
 	19	804	999999	0	0.0001	0	4	0	0	0	; 
 	20	334	999999	0	0.0001	0	4	0	0	0	; 
 	20	335	999999	0	0.0001	0	4	0	0	0	; 
 	20	364	999999	0	0.0001	0	4	0	0	0	; 
 	20	367	999999	0	0.0001	0	4	0	0	0	; 
 	21	353	999999	0	0.0001	0	4	0	0	0	; 
 	21	360	999999	0	0.0001	0	4	0	0	0	; 
 	21	920	999999	0	0.0001	0	4	0	0	0	; 
 	21	922	999999	0	0.0001	0	4	0	0	0	; 
 	22	639	999999	0	0.0001	0	4	0	0	0	; 
 	22	641	999999	0	0.0001	0	4	0	0	0	; 
 	22	642	999999	0	0.0001	0	4	0	0	0	; 
 	22	938	999999	0	0.0001	0	4	0	0	0	; 
 	23	278	999999	0	0.0001	0	4	0	0	0	; 
 	23	875	999999	0	0.0001	0	4	0	0	0	; 
 	23	877	999999	0	0.0001	0	4	0	0	0	; 
 	23	878	999999	0	0.0001	0	4	0	0	0	; 
 	24	456	999999	0	0.0001	0	4	0	0	0	; 
 	24	733	999999	0	0.0001	0	4	0	0	0	; 
 	24	734	999999	0	0.0001	0	4	0	0	0	; 
 	24	735	999999	0	0.0001	0	4	0	0	0	; 
 	25	768	999999	0	0.0001	0	4	0	0	0	; 
 	25	772	999999	0	0.0001	0	4	0	0	0	; 
 	25	773	999999	0	0.0001	0	4	0	0	0	; 
 	25	775	999999	0	0.0001	0	4	0	0	0	; 
 	26	455	999999	0	0.0001	0	4	0	0	0	; 
 	26	768	999999	0	0.0001	0	4	0	0	0	; 
 	26	774	999999	0	0.0001	0	4	0	0	0	; 
 	26	826	999999	0	0.0001	0	4	0	0	0	; 
 	27	132	999999	0	0.0001	0	4	0	0	0	; 
 	27	200	999999	0	0.0001	0	4	0	0	0	; 
 	27	203	999999	0	0.0001	0	4	0	0	0	; 
 	27	268	999999	0	0.0001	0	4	0	0	0	; 
 	28	153	999999	0	0.0001	0	4	0	0	0	; 
 	28	158	999999	0	0.0001	0	4	0	0	0	; 
 	28	164	999999	0	0.0001	0	4	0	0	0	; 
 	28	167	999999	0	0.0001	0	4	0	0	0	; 
 	29	151	999999	0	0.0001	0	4	0	0	0	; 
 	29	152	999999	0	0.0001	0	4	0	0	0	; 
 	29	546	999999	0	0.0001	0	4	0	0	0	; 
 	29	549	999999	0	0.0001	0	4	0	0	0	; 
 	30	151	999999	0	0.0001	0	4	0	0	0	; 
 	30	152	999999	0	0.0001	0	4	0	0	0	; 
 	30	160	999999	0	0.0001	0	4	0	0	0	; 
 	30	953	999999	0	0.0001	0	4	0	0	0	; 
 	31	169	999999	0	0.0001	0	4	0	0	0	; 
 	31	171	999999	0	0.0001	0	4	0	0	0	; 
 	31	216	999999	0	0.0001	0	4	0	0	0	; 
 	31	217	999999	0	0.0001	0	4	0	0	0	; 
 	32	340	999999	0	0.0001	0	4	0	0	0	; 
 	32	341	999999	0	0.0001	0	4	0	0	0	; 
 	32	345	999999	0	0.0001	0	4	0	0	0	; 
 	32	352	999999	0	0.0001	0	4	0	0	0	; 
 	33	343	999999	0	0.0001	0	4	0	0	0	; 
 	33	347	999999	0	0.0001	0	4	0	0	0	; 
 	33	348	999999	0	0.0001	0	4	0	0	0	; 
 	33	476	999999	0	0.0001	0	4	0	0	0	; 
 	34	632	999999	0	0.0001	0	4	0	0	0	; 
 	34	633	999999	0	0.0001	0	4	0	0	0	; 
 	34	634	999999	0	0.0001	0	4	0	0	0	; 
 	34	637	999999	0	0.0001	0	4	0	0	0	; 
 	35	597	999999	0	0.0001	0	4	0	0	0	; 
 	35	710	999999	0	0.0001	0	4	0	0	0	; 
 	35	711	999999	0	0.0001	0	4	0	0	0	; 
 	35	712	999999	0	0.0001	0	4	0	0	0	; 
 	36	479	999999	0	0.0001	0	4	0	0	0	; 
 	36	493	999999	0	0.0001	0	4	0	0	0	; 
 	36	494	999999	0	0.0001	0	4	0	0	0	; 
 	36	497	999999	0	0.0001	0	4	0	0	0	; 
 	37	299	999999	0	0.0001	0	4	0	0	0	; 
 	37	739	999999	0	0.0001	0	4	0	0	0	; 
 	37	744	999999	0	0.0001	0	4	0	0	0	; 
 	37	846	999999	0	0.0001	0	4	0	0	0	; 
 	38	294	999999	0	0.0001	0	4	0	0	0	; 
 	38	749	999999	0	0.0001	0	4	0	0	0	; 
 	38	779	999999	0	0.0001	0	4	0	0	0	; 
 	38	782	999999	0	0.0001	0	4	0	0	0	; 
 	39	294	999999	0	0.0001	0	4	0	0	0	; 
 	39	297	999999	0	0.0001	0	4	0	0	0	; 
 	39	299	999999	0	0.0001	0	4	0	0	0	; 
 	39	739	999999	0	0.0001	0	4	0	0	0	; 
 	40	796	999999	0	0.0001	0	4	0	0	0	; 
 	40	800	999999	0	0.0001	0	4	0	0	0	; 
 	40	801	999999	0	0.0001	0	4	0	0	0	; 
 	40	897	999999	0	0.0001	0	4	0	0	0	; 
 	41	701	999999	0	0.0001	0	4	0	0	0	; 
 	41	704	999999	0	0.0001	0	4	0	0	0	; 
 	41	705	999999	0	0.0001	0	4	0	0	0	; 
 	41	736	999999	0	0.0001	0	4	0	0	0	; 
 	42	830	999999	0	0.0001	0	4	0	0	0	; 
 	42	912	999999	0	0.0001	0	4	0	0	0	; 
 	42	913	999999	0	0.0001	0	4	0	0	0	; 
 	42	915	999999	0	0.0001	0	4	0	0	0	; 
 	43	721	999999	0	0.0001	0	4	0	0	0	; 
 	43	794	999999	0	0.0001	0	4	0	0	0	; 
 	43	795	999999	0	0.0001	0	4	0	0	0	; 
 	43	796	999999	0	0.0001	0	4	0	0	0	; 
 	44	706	999999	0	0.0001	0	4	0	0	0	; 
 	44	708	999999	0	0.0001	0	4	0	0	0	; 
 	44	719	999999	0	0.0001	0	4	0	0	0	; 
 	44	724	999999	0	0.0001	0	4	0	0	0	; 
 	45	846	999999	0	0.0001	0	4	0	0	0	; 
 	45	930	999999	0	0.0001	0	4	0	0	0	; 
 	45	934	999999	0	0.0001	0	4	0	0	0	; 
 	45	936	999999	0	0.0001	0	4	0	0	0	; 
 	46	844	999999	0	0.0001	0	4	0	0	0	; 
 	46	860	999999	0	0.0001	0	4	0	0	0	; 
 	46	861	999999	0	0.0001	0	4	0	0	0	; 
 	46	863	999999	0	0.0001	0	4	0	0	0	; 
 	47	856	999999	0	0.0001	0	4	0	0	0	; 
 	47	857	999999	0	0.0001	0	4	0	0	0	; 
 	47	861	999999	0	0.0001	0	4	0	0	0	; 
 	47	864	999999	0	0.0001	0	4	0	0	0	; 
 	48	292	999999	0	0.0001	0	4	0	0	0	; 
 	48	302	999999	0	0.0001	0	4	0	0	0	; 
 	48	785	999999	0	0.0001	0	4	0	0	0	; 
 	48	789	999999	0	0.0001	0	4	0	0	0	; 
 	49	693	999999	0	0.0001	0	4	0	0	0	; 
 	49	696	999999	0	0.0001	0	4	0	0	0	; 
 	49	697	999999	0	0.0001	0	4	0	0	0	; 
 	49	698	999999	0	0.0001	0	4	0	0	0	; 
 	50	139	999999	0	0.0001	0	4	0	0	0	; 
 	50	584	999999	0	0.0001	0	4	0	0	0	; 
 	50	586	999999	0	0.0001	0	4	0	0	0	; 
 	50	587	999999	0	0.0001	0	4	0	0	0	; 
 	51	529	999999	0	0.0001	0	4	0	0	0	; 
 	51	530	999999	0	0.0001	0	4	0	0	0	; 
 	51	531	999999	0	0.0001	0	4	0	0	0	; 
 	51	951	999999	0	0.0001	0	4	0	0	0	; 
 	52	247	999999	0	0.0001	0	4	0	0	0	; 
 	52	248	999999	0	0.0001	0	4	0	0	0	; 
 	52	369	999999	0	0.0001	0	4	0	0	0	; 
 	52	370	999999	0	0.0001	0	4	0	0	0	; 
 	53	247	999999	0	0.0001	0	4	0	0	0	; 
 	53	248	999999	0	0.0001	0	4	0	0	0	; 
 	53	249	999999	0	0.0001	0	4	0	0	0	; 
 	53	250	999999	0	0.0001	0	4	0	0	0	; 
 	54	209	999999	0	0.0001	0	4	0	0	0	; 
 	54	211	999999	0	0.0001	0	4	0	0	0	; 
 	54	213	999999	0	0.0001	0	4	0	0	0	; 
 	54	218	999999	0	0.0001	0	4	0	0	0	; 
 	55	420	999999	0	0.0001	0	4	0	0	0	; 
 	55	421	999999	0	0.0001	0	4	0	0	0	; 
 	55	425	999999	0	0.0001	0	4	0	0	0	; 
 	55	426	999999	0	0.0001	0	4	0	0	0	; 
 	56	121	999999	0	0.0001	0	4	0	0	0	; 
 	56	122	999999	0	0.0001	0	4	0	0	0	; 
 	56	129	999999	0	0.0001	0	4	0	0	0	; 
 	56	449	999999	0	0.0001	0	4	0	0	0	; 
 	57	276	999999	0	0.0001	0	4	0	0	0	; 
 	57	354	999999	0	0.0001	0	4	0	0	0	; 
 	57	356	999999	0	0.0001	0	4	0	0	0	; 
 	57	358	999999	0	0.0001	0	4	0	0	0	; 
 	58	124	999999	0	0.0001	0	4	0	0	0	; 
 	58	125	999999	0	0.0001	0	4	0	0	0	; 
 	58	277	999999	0	0.0001	0	4	0	0	0	; 
 	58	285	999999	0	0.0001	0	4	0	0	0	; 
 	59	264	999999	0	0.0001	0	4	0	0	0	; 
 	59	269	999999	0	0.0001	0	4	0	0	0	; 
 	59	457	999999	0	0.0001	0	4	0	0	0	; 
 	59	700	999999	0	0.0001	0	4	0	0	0	; 
 	60	263	999999	0	0.0001	0	4	0	0	0	; 
 	60	265	999999	0	0.0001	0	4	0	0	0	; 
 	60	267	999999	0	0.0001	0	4	0	0	0	; 
 	60	272	999999	0	0.0001	0	4	0	0	0	; 
 	61	264	999999	0	0.0001	0	4	0	0	0	; 
 	61	269	999999	0	0.0001	0	4	0	0	0	; 
 	61	270	999999	0	0.0001	0	4	0	0	0	; 
 	61	700	999999	0	0.0001	0	4	0	0	0	; 
 	62	204	999999	0	0.0001	0	4	0	0	0	; 
 	62	206	999999	0	0.0001	0	4	0	0	0	; 
 	62	264	999999	0	0.0001	0	4	0	0	0	; 
 	62	266	999999	0	0.0001	0	4	0	0	0	; 
 	63	268	999999	0	0.0001	0	4	0	0	0	; 
 	63	272	999999	0	0.0001	0	4	0	0	0	; 
 	63	273	999999	0	0.0001	0	4	0	0	0	; 
 	63	323	999999	0	0.0001	0	4	0	0	0	; 
 	64	545	999999	0	0.0001	0	4	0	0	0	; 
 	64	551	999999	0	0.0001	0	4	0	0	0	; 
 	64	554	999999	0	0.0001	0	4	0	0	0	; 
 	64	644	999999	0	0.0001	0	4	0	0	0	; 
 	65	144	999999	0	0.0001	0	4	0	0	0	; 
 	65	184	999999	0	0.0001	0	4	0	0	0	; 
 	65	551	999999	0	0.0001	0	4	0	0	0	; 
 	65	555	999999	0	0.0001	0	4	0	0	0	; 
 	66	144	999999	0	0.0001	0	4	0	0	0	; 
 	66	145	999999	0	0.0001	0	4	0	0	0	; 
 	66	146	999999	0	0.0001	0	4	0	0	0	; 
 	66	219	999999	0	0.0001	0	4	0	0	0	; 
 	67	552	999999	0	0.0001	0	4	0	0	0	; 
 	67	583	999999	0	0.0001	0	4	0	0	0	; 
 	67	584	999999	0	0.0001	0	4	0	0	0	; 
 	67	617	999999	0	0.0001	0	4	0	0	0	; 
 	68	602	999999	0	0.0001	0	4	0	0	0	; 
 	68	609	999999	0	0.0001	0	4	0	0	0	; 
 	68	612	999999	0	0.0001	0	4	0	0	0	; 
 	68	941	999999	0	0.0001	0	4	0	0	0	; 
 	69	602	999999	0	0.0001	0	4	0	0	0	; 
 	69	604	999999	0	0.0001	0	4	0	0	0	; 
 	69	612	999999	0	0.0001	0	4	0	0	0	; 
 	69	939	999999	0	0.0001	0	4	0	0	0	; 
 	70	147	999999	0	0.0001	0	4	0	0	0	; 
 	70	163	999999	0	0.0001	0	4	0	0	0	; 
 	70	175	999999	0	0.0001	0	4	0	0	0	; 
 	70	522	999999	0	0.0001	0	4	0	0	0	; 
 	71	344	999999	0	0.0001	0	4	0	0	0	; 
 	71	346	999999	0	0.0001	0	4	0	0	0	; 
 	71	349	999999	0	0.0001	0	4	0	0	0	; 
 	71	350	999999	0	0.0001	0	4	0	0	0	; 
 	72	515	999999	0	0.0001	0	4	0	0	0	; 
 	72	524	999999	0	0.0001	0	4	0	0	0	; 
 	72	526	999999	0	0.0001	0	4	0	0	0	; 
 	72	527	999999	0	0.0001	0	4	0	0	0	; 
 	73	435	999999	0	0.0001	0	4	0	0	0	; 
 	73	445	999999	0	0.0001	0	4	0	0	0	; 
 	73	507	999999	0	0.0001	0	4	0	0	0	; 
 	73	508	999999	0	0.0001	0	4	0	0	0	; 
 	74	338	999999	0	0.0001	0	4	0	0	0	; 
 	74	342	999999	0	0.0001	0	4	0	0	0	; 
 	74	509	999999	0	0.0001	0	4	0	0	0	; 
 	74	957	999999	0	0.0001	0	4	0	0	0	; 
 	75	558	999999	0	0.0001	0	4	0	0	0	; 
 	75	559	999999	0	0.0001	0	4	0	0	0	; 
 	75	585	999999	0	0.0001	0	4	0	0	0	; 
 	75	608	999999	0	0.0001	0	4	0	0	0	; 
 	76	534	999999	0	0.0001	0	4	0	0	0	; 
 	76	543	999999	0	0.0001	0	4	0	0	0	; 
 	76	601	999999	0	0.0001	0	4	0	0	0	; 
 	76	603	999999	0	0.0001	0	4	0	0	0	; 
 	77	479	999999	0	0.0001	0	4	0	0	0	; 
 	77	480	999999	0	0.0001	0	4	0	0	0	; 
 	77	483	999999	0	0.0001	0	4	0	0	0	; 
 	77	484	999999	0	0.0001	0	4	0	0	0	; 
 	78	771	999999	0	0.0001	0	4	0	0	0	; 
 	78	776	999999	0	0.0001	0	4	0	0	0	; 
 	78	777	999999	0	0.0001	0	4	0	0	0	; 
 	78	778	999999	0	0.0001	0	4	0	0	0	; 
 	79	303	999999	0	0.0001	0	4	0	0	0	; 
 	79	738	999999	0	0.0001	0	4	0	0	0	; 
 	79	742	999999	0	0.0001	0	4	0	0	0	; 
 	79	779	999999	0	0.0001	0	4	0	0	0	; 
 	80	102	999999	0	0.0001	0	4	0	0	0	; 
 	80	776	999999	0	0.0001	0	4	0	0	0	; 
 	80	777	999999	0	0.0001	0	4	0	0	0	; 
 	80	959	999999	0	0.0001	0	4	0	0	0	; 
 	81	322	999999	0	0.0001	0	4	0	0	0	; 
 	81	324	999999	0	0.0001	0	4	0	0	0	; 
 	81	374	999999	0	0.0001	0	4	0	0	0	; 
 	81	378	999999	0	0.0001	0	4	0	0	0	; 
 	82	571	999999	0	0.0001	0	4	0	0	0	; 
 	82	574	999999	0	0.0001	0	4	0	0	0	; 
 	82	575	999999	0	0.0001	0	4	0	0	0	; 
 	82	579	999999	0	0.0001	0	4	0	0	0	; 
 	83	224	999999	0	0.0001	0	4	0	0	0	; 
 	83	225	999999	0	0.0001	0	4	0	0	0	; 
 	83	238	999999	0	0.0001	0	4	0	0	0	; 
 	83	274	999999	0	0.0001	0	4	0	0	0	; 
 	84	209	999999	0	0.0001	0	4	0	0	0	; 
 	84	307	999999	0	0.0001	0	4	0	0	0	; 
 	84	308	999999	0	0.0001	0	4	0	0	0	; 
 	84	309	999999	0	0.0001	0	4	0	0	0	; 
 	85	110	999999	0	0.0001	0	4	0	0	0	; 
 	85	355	999999	0	0.0001	0	4	0	0	0	; 
 	85	361	999999	0	0.0001	0	4	0	0	0	; 
 	85	625	999999	0	0.0001	0	4	0	0	0	; 
 	86	272	999999	0	0.0001	0	4	0	0	0	; 
 	86	273	999999	0	0.0001	0	4	0	0	0	; 
 	86	310	999999	0	0.0001	0	4	0	0	0	; 
 	86	323	999999	0	0.0001	0	4	0	0	0	; 
 	87	620	999999	0	0.0001	0	4	0	0	0	; 
 	87	643	999999	0	0.0001	0	4	0	0	0	; 
 	87	924	999999	0	0.0001	0	4	0	0	0	; 
 	87	925	999999	0	0.0001	0	4	0	0	0	; 
 	88	401	999999	0	0.0001	0	4	0	0	0	; 
 	88	402	999999	0	0.0001	0	4	0	0	0	; 
 	88	546	999999	0	0.0001	0	4	0	0	0	; 
 	88	548	999999	0	0.0001	0	4	0	0	0	; 
 	89	147	999999	0	0.0001	0	4	0	0	0	; 
 	89	148	999999	0	0.0001	0	4	0	0	0	; 
 	89	163	999999	0	0.0001	0	4	0	0	0	; 
 	89	175	999999	0	0.0001	0	4	0	0	0	; 
 	90	108	999999	0	0.0001	0	4	0	0	0	; 
 	90	518	999999	0	0.0001	0	4	0	0	0	; 
 	90	520	999999	0	0.0001	0	4	0	0	0	; 
 	90	521	999999	0	0.0001	0	4	0	0	0	; 
 	91	187	999999	0	0.0001	0	4	0	0	0	; 
 	91	188	999999	0	0.0001	0	4	0	0	0	; 
 	91	215	999999	0	0.0001	0	4	0	0	0	; 
 	91	611	999999	0	0.0001	0	4	0	0	0	; 
 	92	257	999999	0	0.0001	0	4	0	0	0	; 
 	92	611	999999	0	0.0001	0	4	0	0	0	; 
 	92	711	999999	0	0.0001	0	4	0	0	0	; 
 	92	839	999999	0	0.0001	0	4	0	0	0	; 
 	93	597	999999	0	0.0001	0	4	0	0	0	; 
 	93	611	999999	0	0.0001	0	4	0	0	0	; 
 	93	710	999999	0	0.0001	0	4	0	0	0	; 
 	93	716	999999	0	0.0001	0	4	0	0	0	; 
 	94	311	999999	0	0.0001	0	4	0	0	0	; 
 	94	312	999999	0	0.0001	0	4	0	0	0	; 
 	94	764	999999	0	0.0001	0	4	0	0	0	; 
 	94	765	999999	0	0.0001	0	4	0	0	0	; 
 	95	190	999999	0	0.0001	0	4	0	0	0	; 
 	95	199	999999	0	0.0001	0	4	0	0	0	; 
 	95	517	999999	0	0.0001	0	4	0	0	0	; 
 	95	967	999999	0	0.0001	0	4	0	0	0	; 
 	96	738	999999	0	0.0001	0	4	0	0	0	; 
 	96	745	999999	0	0.0001	0	4	0	0	0	; 
 	96	777	999999	0	0.0001	0	4	0	0	0	; 
 	96	894	999999	0	0.0001	0	4	0	0	0	; 
 	97	835	999999	0	0.0001	0	4	0	0	0	; 
 	98	518	999999	0	0.0001	0	4	0	0	0	; 
 	98	519	999999	0	0.0001	0	4	0	0	0	; 
 	102	80	999999	0	0.0001	0	4	0	0	0	; 
 	108	90	999999	0	0.0001	0	4	0	0	0	; 
 	110	85	999999	0	0.0001	0	4	0	0	0	; 
 	121	56	999999	0	0.0001	0	4	0	0	0	; 
 	122	56	999999	0	0.0001	0	4	0	0	0	; 
 	124	58	999999	0	0.0001	0	4	0	0	0	; 
 	125	58	999999	0	0.0001	0	4	0	0	0	; 
 	129	56	999999	0	0.0001	0	4	0	0	0	; 
 	132	27	999999	0	0.0001	0	4	0	0	0	; 
 	139	50	999999	0	0.0001	0	4	0	0	0	; 
 	143	19	999999	0	0.0001	0	4	0	0	0	; 
 	144	65	999999	0	0.0001	0	4	0	0	0	; 
 	144	66	999999	0	0.0001	0	4	0	0	0	; 
 	145	66	999999	0	0.0001	0	4	0	0	0	; 
 	146	66	999999	0	0.0001	0	4	0	0	0	; 
 	147	70	999999	0	0.0001	0	4	0	0	0	; 
 	147	89	999999	0	0.0001	0	4	0	0	0	; 
 	148	89	999999	0	0.0001	0	4	0	0	0	; 
 	151	29	999999	0	0.0001	0	4	0	0	0	; 
 	151	30	999999	0	0.0001	0	4	0	0	0	; 
 	152	29	999999	0	0.0001	0	4	0	0	0	; 
 	152	30	999999	0	0.0001	0	4	0	0	0	; 
 	153	28	999999	0	0.0001	0	4	0	0	0	; 
 	158	28	999999	0	0.0001	0	4	0	0	0	; 
 	160	30	999999	0	0.0001	0	4	0	0	0	; 
 	163	70	999999	0	0.0001	0	4	0	0	0	; 
 	163	89	999999	0	0.0001	0	4	0	0	0	; 
 	164	28	999999	0	0.0001	0	4	0	0	0	; 
 	167	28	999999	0	0.0001	0	4	0	0	0	; 
 	169	31	999999	0	0.0001	0	4	0	0	0	; 
 	171	31	999999	0	0.0001	0	4	0	0	0	; 
 	175	70	999999	0	0.0001	0	4	0	0	0	; 
 	175	89	999999	0	0.0001	0	4	0	0	0	; 
 	184	65	999999	0	0.0001	0	4	0	0	0	; 
 	187	91	999999	0	0.0001	0	4	0	0	0	; 
 	188	91	999999	0	0.0001	0	4	0	0	0	; 
 	190	95	999999	0	0.0001	0	4	0	0	0	; 
 	199	95	999999	0	0.0001	0	4	0	0	0	; 
 	200	27	999999	0	0.0001	0	4	0	0	0	; 
 	203	27	999999	0	0.0001	0	4	0	0	0	; 
 	204	62	999999	0	0.0001	0	4	0	0	0	; 
 	206	62	999999	0	0.0001	0	4	0	0	0	; 
 	209	54	999999	0	0.0001	0	4	0	0	0	; 
 	209	84	999999	0	0.0001	0	4	0	0	0	; 
 	211	54	999999	0	0.0001	0	4	0	0	0	; 
 	213	54	999999	0	0.0001	0	4	0	0	0	; 
 	215	91	999999	0	0.0001	0	4	0	0	0	; 
 	216	31	999999	0	0.0001	0	4	0	0	0	; 
 	217	31	999999	0	0.0001	0	4	0	0	0	; 
 	218	54	999999	0	0.0001	0	4	0	0	0	; 
 	219	66	999999	0	0.0001	0	4	0	0	0	; 
 	222	7	999999	0	0.0001	0	4	0	0	0	; 
 	223	7	999999	0	0.0001	0	4	0	0	0	; 
 	224	83	999999	0	0.0001	0	4	0	0	0	; 
 	225	83	999999	0	0.0001	0	4	0	0	0	; 
 	232	7	999999	0	0.0001	0	4	0	0	0	; 
 	238	83	999999	0	0.0001	0	4	0	0	0	; 
 	241	7	999999	0	0.0001	0	4	0	0	0	; 
 	247	52	999999	0	0.0001	0	4	0	0	0	; 
 	247	53	999999	0	0.0001	0	4	0	0	0	; 
 	248	52	999999	0	0.0001	0	4	0	0	0	; 
 	248	53	999999	0	0.0001	0	4	0	0	0	; 
 	249	53	999999	0	0.0001	0	4	0	0	0	; 
 	250	53	999999	0	0.0001	0	4	0	0	0	; 
 	257	92	999999	0	0.0001	0	4	0	0	0	; 
 	258	11	999999	0	0.0001	0	4	0	0	0	; 
 	263	60	999999	0	0.0001	0	4	0	0	0	; 
 	264	59	999999	0	0.0001	0	4	0	0	0	; 
 	264	61	999999	0	0.0001	0	4	0	0	0	; 
 	264	62	999999	0	0.0001	0	4	0	0	0	; 
 	265	60	999999	0	0.0001	0	4	0	0	0	; 
 	266	62	999999	0	0.0001	0	4	0	0	0	; 
 	267	60	999999	0	0.0001	0	4	0	0	0	; 
 	268	27	999999	0	0.0001	0	4	0	0	0	; 
 	268	63	999999	0	0.0001	0	4	0	0	0	; 
 	269	59	999999	0	0.0001	0	4	0	0	0	; 
 	269	61	999999	0	0.0001	0	4	0	0	0	; 
 	270	61	999999	0	0.0001	0	4	0	0	0	; 
 	272	60	999999	0	0.0001	0	4	0	0	0	; 
 	272	63	999999	0	0.0001	0	4	0	0	0	; 
 	272	86	999999	0	0.0001	0	4	0	0	0	; 
 	273	63	999999	0	0.0001	0	4	0	0	0	; 
 	273	86	999999	0	0.0001	0	4	0	0	0	; 
 	274	83	999999	0	0.0001	0	4	0	0	0	; 
 	276	57	999999	0	0.0001	0	4	0	0	0	; 
 	277	58	999999	0	0.0001	0	4	0	0	0	; 
 	278	23	999999	0	0.0001	0	4	0	0	0	; 
 	285	58	999999	0	0.0001	0	4	0	0	0	; 
 	286	19	999999	0	0.0001	0	4	0	0	0	; 
 	290	19	999999	0	0.0001	0	4	0	0	0	; 
 	292	48	999999	0	0.0001	0	4	0	0	0	; 
 	294	38	999999	0	0.0001	0	4	0	0	0	; 
 	294	39	999999	0	0.0001	0	4	0	0	0	; 
 	297	39	999999	0	0.0001	0	4	0	0	0	; 
 	299	37	999999	0	0.0001	0	4	0	0	0	; 
 	299	39	999999	0	0.0001	0	4	0	0	0	; 
 	302	48	999999	0	0.0001	0	4	0	0	0	; 
 	303	79	999999	0	0.0001	0	4	0	0	0	; 
 	307	84	999999	0	0.0001	0	4	0	0	0	; 
 	308	84	999999	0	0.0001	0	4	0	0	0	; 
 	309	84	999999	0	0.0001	0	4	0	0	0	; 
 	310	86	999999	0	0.0001	0	4	0	0	0	; 
 	311	94	999999	0	0.0001	0	4	0	0	0	; 
 	312	94	999999	0	0.0001	0	4	0	0	0	; 
 	322	81	999999	0	0.0001	0	4	0	0	0	; 
 	323	63	999999	0	0.0001	0	4	0	0	0	; 
 	323	86	999999	0	0.0001	0	4	0	0	0	; 
 	324	81	999999	0	0.0001	0	4	0	0	0	; 
 	334	20	999999	0	0.0001	0	4	0	0	0	; 
 	335	20	999999	0	0.0001	0	4	0	0	0	; 
 	338	74	999999	0	0.0001	0	4	0	0	0	; 
 	340	32	999999	0	0.0001	0	4	0	0	0	; 
 	341	32	999999	0	0.0001	0	4	0	0	0	; 
 	342	74	999999	0	0.0001	0	4	0	0	0	; 
 	343	33	999999	0	0.0001	0	4	0	0	0	; 
 	344	71	999999	0	0.0001	0	4	0	0	0	; 
 	345	32	999999	0	0.0001	0	4	0	0	0	; 
 	346	71	999999	0	0.0001	0	4	0	0	0	; 
 	347	33	999999	0	0.0001	0	4	0	0	0	; 
 	348	33	999999	0	0.0001	0	4	0	0	0	; 
 	349	71	999999	0	0.0001	0	4	0	0	0	; 
 	350	71	999999	0	0.0001	0	4	0	0	0	; 
 	352	32	999999	0	0.0001	0	4	0	0	0	; 
 	353	21	999999	0	0.0001	0	4	0	0	0	; 
 	354	57	999999	0	0.0001	0	4	0	0	0	; 
 	355	85	999999	0	0.0001	0	4	0	0	0	; 
 	356	57	999999	0	0.0001	0	4	0	0	0	; 
 	358	57	999999	0	0.0001	0	4	0	0	0	; 
 	360	21	999999	0	0.0001	0	4	0	0	0	; 
 	361	85	999999	0	0.0001	0	4	0	0	0	; 
 	364	20	999999	0	0.0001	0	4	0	0	0	; 
 	366	16	999999	0	0.0001	0	4	0	0	0	; 
 	367	20	999999	0	0.0001	0	4	0	0	0	; 
 	369	52	999999	0	0.0001	0	4	0	0	0	; 
 	370	17	999999	0	0.0001	0	4	0	0	0	; 
 	370	52	999999	0	0.0001	0	4	0	0	0	; 
 	374	81	999999	0	0.0001	0	4	0	0	0	; 
 	378	81	999999	0	0.0001	0	4	0	0	0	; 
 	395	18	999999	0	0.0001	0	4	0	0	0	; 
 	401	88	999999	0	0.0001	0	4	0	0	0	; 
 	402	88	999999	0	0.0001	0	4	0	0	0	; 
 	420	55	999999	0	0.0001	0	4	0	0	0	; 
 	421	55	999999	0	0.0001	0	4	0	0	0	; 
 	425	55	999999	0	0.0001	0	4	0	0	0	; 
 	426	55	999999	0	0.0001	0	4	0	0	0	; 
 	433	12	999999	0	0.0001	0	4	0	0	0	; 
 	435	73	999999	0	0.0001	0	4	0	0	0	; 
 	437	12	999999	0	0.0001	0	4	0	0	0	; 
 	443	12	999999	0	0.0001	0	4	0	0	0	; 
 	444	12	999999	0	0.0001	0	4	0	0	0	; 
 	445	73	999999	0	0.0001	0	4	0	0	0	; 
 	449	56	999999	0	0.0001	0	4	0	0	0	; 
 	454	18	999999	0	0.0001	0	4	0	0	0	; 
 	455	26	999999	0	0.0001	0	4	0	0	0	; 
 	456	24	999999	0	0.0001	0	4	0	0	0	; 
 	457	59	999999	0	0.0001	0	4	0	0	0	; 
 	462	14	999999	0	0.0001	0	4	0	0	0	; 
 	463	14	999999	0	0.0001	0	4	0	0	0	; 
 	464	14	999999	0	0.0001	0	4	0	0	0	; 
 	467	14	999999	0	0.0001	0	4	0	0	0	; 
 	471	17	999999	0	0.0001	0	4	0	0	0	; 
 	472	17	999999	0	0.0001	0	4	0	0	0	; 
 	474	17	999999	0	0.0001	0	4	0	0	0	; 
 	476	33	999999	0	0.0001	0	4	0	0	0	; 
 	479	36	999999	0	0.0001	0	4	0	0	0	; 
 	479	77	999999	0	0.0001	0	4	0	0	0	; 
 	480	77	999999	0	0.0001	0	4	0	0	0	; 
 	483	77	999999	0	0.0001	0	4	0	0	0	; 
 	484	77	999999	0	0.0001	0	4	0	0	0	; 
 	493	36	999999	0	0.0001	0	4	0	0	0	; 
 	494	36	999999	0	0.0001	0	4	0	0	0	; 
 	497	36	999999	0	0.0001	0	4	0	0	0	; 
 	507	73	999999	0	0.0001	0	4	0	0	0	; 
 	508	73	999999	0	0.0001	0	4	0	0	0	; 
 	509	74	999999	0	0.0001	0	4	0	0	0	; 
 	515	72	999999	0	0.0001	0	4	0	0	0	; 
 	517	95	999999	0	0.0001	0	4	0	0	0	; 
 	518	90	999999	0	0.0001	0	4	0	0	0	; 
 	518	98	999999	0	0.0001	0	4	0	0	0	; 
 	519	98	999999	0	0.0001	0	4	0	0	0	; 
 	520	90	999999	0	0.0001	0	4	0	0	0	; 
 	521	90	999999	0	0.0001	0	4	0	0	0	; 
 	522	70	999999	0	0.0001	0	4	0	0	0	; 
 	524	72	999999	0	0.0001	0	4	0	0	0	; 
 	526	72	999999	0	0.0001	0	4	0	0	0	; 
 	527	72	999999	0	0.0001	0	4	0	0	0	; 
 	529	51	999999	0	0.0001	0	4	0	0	0	; 
 	530	51	999999	0	0.0001	0	4	0	0	0	; 
 	531	51	999999	0	0.0001	0	4	0	0	0	; 
 	534	76	999999	0	0.0001	0	4	0	0	0	; 
 	543	76	999999	0	0.0001	0	4	0	0	0	; 
 	545	64	999999	0	0.0001	0	4	0	0	0	; 
 	546	29	999999	0	0.0001	0	4	0	0	0	; 
 	546	88	999999	0	0.0001	0	4	0	0	0	; 
 	548	88	999999	0	0.0001	0	4	0	0	0	; 
 	549	29	999999	0	0.0001	0	4	0	0	0	; 
 	551	64	999999	0	0.0001	0	4	0	0	0	; 
 	551	65	999999	0	0.0001	0	4	0	0	0	; 
 	552	67	999999	0	0.0001	0	4	0	0	0	; 
 	554	64	999999	0	0.0001	0	4	0	0	0	; 
 	555	65	999999	0	0.0001	0	4	0	0	0	; 
 	558	75	999999	0	0.0001	0	4	0	0	0	; 
 	559	75	999999	0	0.0001	0	4	0	0	0	; 
 	564	10	999999	0	0.0001	0	4	0	0	0	; 
 	566	10	999999	0	0.0001	0	4	0	0	0	; 
 	568	10	999999	0	0.0001	0	4	0	0	0	; 
 	570	10	999999	0	0.0001	0	4	0	0	0	; 
 	571	82	999999	0	0.0001	0	4	0	0	0	; 
 	574	82	999999	0	0.0001	0	4	0	0	0	; 
 	575	82	999999	0	0.0001	0	4	0	0	0	; 
 	579	82	999999	0	0.0001	0	4	0	0	0	; 
 	583	67	999999	0	0.0001	0	4	0	0	0	; 
 	584	50	999999	0	0.0001	0	4	0	0	0	; 
 	584	67	999999	0	0.0001	0	4	0	0	0	; 
 	585	75	999999	0	0.0001	0	4	0	0	0	; 
 	586	50	999999	0	0.0001	0	4	0	0	0	; 
 	587	50	999999	0	0.0001	0	4	0	0	0	; 
 	588	9	999999	0	0.0001	0	4	0	0	0	; 
 	597	35	999999	0	0.0001	0	4	0	0	0	; 
 	597	93	999999	0	0.0001	0	4	0	0	0	; 
 	601	76	999999	0	0.0001	0	4	0	0	0	; 
 	602	68	999999	0	0.0001	0	4	0	0	0	; 
 	602	69	999999	0	0.0001	0	4	0	0	0	; 
 	603	76	999999	0	0.0001	0	4	0	0	0	; 
 	604	69	999999	0	0.0001	0	4	0	0	0	; 
 	608	75	999999	0	0.0001	0	4	0	0	0	; 
 	609	68	999999	0	0.0001	0	4	0	0	0	; 
 	611	91	999999	0	0.0001	0	4	0	0	0	; 
 	611	92	999999	0	0.0001	0	4	0	0	0	; 
 	611	93	999999	0	0.0001	0	4	0	0	0	; 
 	612	68	999999	0	0.0001	0	4	0	0	0	; 
 	612	69	999999	0	0.0001	0	4	0	0	0	; 
 	617	67	999999	0	0.0001	0	4	0	0	0	; 
 	620	87	999999	0	0.0001	0	4	0	0	0	; 
 	625	85	999999	0	0.0001	0	4	0	0	0	; 
 	632	34	999999	0	0.0001	0	4	0	0	0	; 
 	633	34	999999	0	0.0001	0	4	0	0	0	; 
 	634	34	999999	0	0.0001	0	4	0	0	0	; 
 	637	34	999999	0	0.0001	0	4	0	0	0	; 
 	639	22	999999	0	0.0001	0	4	0	0	0	; 
 	641	22	999999	0	0.0001	0	4	0	0	0	; 
 	642	22	999999	0	0.0001	0	4	0	0	0	; 
 	643	87	999999	0	0.0001	0	4	0	0	0	; 
 	644	64	999999	0	0.0001	0	4	0	0	0	; 
 	648	15	999999	0	0.0001	0	4	0	0	0	; 
 	649	13	999999	0	0.0001	0	4	0	0	0	; 
 	651	9	999999	0	0.0001	0	4	0	0	0	; 
 	658	15	999999	0	0.0001	0	4	0	0	0	; 
 	659	9	999999	0	0.0001	0	4	0	0	0	; 
 	660	15	999999	0	0.0001	0	4	0	0	0	; 
 	674	15	999999	0	0.0001	0	4	0	0	0	; 
 	679	6	999999	0	0.0001	0	4	0	0	0	; 
 	684	13	999999	0	0.0001	0	4	0	0	0	; 
 	686	13	999999	0	0.0001	0	4	0	0	0	; 
 	693	49	999999	0	0.0001	0	4	0	0	0	; 
 	696	49	999999	0	0.0001	0	4	0	0	0	; 
 	697	49	999999	0	0.0001	0	4	0	0	0	; 
 	698	49	999999	0	0.0001	0	4	0	0	0	; 
 	700	59	999999	0	0.0001	0	4	0	0	0	; 
 	700	61	999999	0	0.0001	0	4	0	0	0	; 
 	701	41	999999	0	0.0001	0	4	0	0	0	; 
 	704	41	999999	0	0.0001	0	4	0	0	0	; 
 	705	41	999999	0	0.0001	0	4	0	0	0	; 
 	706	44	999999	0	0.0001	0	4	0	0	0	; 
 	707	6	999999	0	0.0001	0	4	0	0	0	; 
 	708	44	999999	0	0.0001	0	4	0	0	0	; 
 	710	35	999999	0	0.0001	0	4	0	0	0	; 
 	710	93	999999	0	0.0001	0	4	0	0	0	; 
 	711	35	999999	0	0.0001	0	4	0	0	0	; 
 	711	92	999999	0	0.0001	0	4	0	0	0	; 
 	712	35	999999	0	0.0001	0	4	0	0	0	; 
 	716	93	999999	0	0.0001	0	4	0	0	0	; 
 	719	4	999999	0	0.0001	0	4	0	0	0	; 
 	719	44	999999	0	0.0001	0	4	0	0	0	; 
 	721	43	999999	0	0.0001	0	4	0	0	0	; 
 	724	4	999999	0	0.0001	0	4	0	0	0	; 
 	724	44	999999	0	0.0001	0	4	0	0	0	; 
 	725	4	999999	0	0.0001	0	4	0	0	0	; 
 	733	24	999999	0	0.0001	0	4	0	0	0	; 
 	734	24	999999	0	0.0001	0	4	0	0	0	; 
 	735	24	999999	0	0.0001	0	4	0	0	0	; 
 	736	41	999999	0	0.0001	0	4	0	0	0	; 
 	738	79	999999	0	0.0001	0	4	0	0	0	; 
 	738	96	999999	0	0.0001	0	4	0	0	0	; 
 	739	37	999999	0	0.0001	0	4	0	0	0	; 
 	739	39	999999	0	0.0001	0	4	0	0	0	; 
 	742	79	999999	0	0.0001	0	4	0	0	0	; 
 	744	37	999999	0	0.0001	0	4	0	0	0	; 
 	745	96	999999	0	0.0001	0	4	0	0	0	; 
 	749	38	999999	0	0.0001	0	4	0	0	0	; 
 	751	2	999999	0	0.0001	0	4	0	0	0	; 
 	752	5	999999	0	0.0001	0	4	0	0	0	; 
 	753	2	999999	0	0.0001	0	4	0	0	0	; 
 	753	5	999999	0	0.0001	0	4	0	0	0	; 
 	754	2	999999	0	0.0001	0	4	0	0	0	; 
 	756	3	999999	0	0.0001	0	4	0	0	0	; 
 	757	3	999999	0	0.0001	0	4	0	0	0	; 
 	758	3	999999	0	0.0001	0	4	0	0	0	; 
 	759	3	999999	0	0.0001	0	4	0	0	0	; 
 	761	4	999999	0	0.0001	0	4	0	0	0	; 
 	762	6	999999	0	0.0001	0	4	0	0	0	; 
 	764	94	999999	0	0.0001	0	4	0	0	0	; 
 	765	94	999999	0	0.0001	0	4	0	0	0	; 
 	767	16	999999	0	0.0001	0	4	0	0	0	; 
 	768	25	999999	0	0.0001	0	4	0	0	0	; 
 	768	26	999999	0	0.0001	0	4	0	0	0	; 
 	769	16	999999	0	0.0001	0	4	0	0	0	; 
 	770	16	999999	0	0.0001	0	4	0	0	0	; 
 	771	78	999999	0	0.0001	0	4	0	0	0	; 
 	772	25	999999	0	0.0001	0	4	0	0	0	; 
 	773	25	999999	0	0.0001	0	4	0	0	0	; 
 	774	26	999999	0	0.0001	0	4	0	0	0	; 
 	775	25	999999	0	0.0001	0	4	0	0	0	; 
 	776	78	999999	0	0.0001	0	4	0	0	0	; 
 	776	80	999999	0	0.0001	0	4	0	0	0	; 
 	777	78	999999	0	0.0001	0	4	0	0	0	; 
 	777	80	999999	0	0.0001	0	4	0	0	0	; 
 	777	96	999999	0	0.0001	0	4	0	0	0	; 
 	778	78	999999	0	0.0001	0	4	0	0	0	; 
 	779	38	999999	0	0.0001	0	4	0	0	0	; 
 	779	79	999999	0	0.0001	0	4	0	0	0	; 
 	781	2	999999	0	0.0001	0	4	0	0	0	; 
 	782	38	999999	0	0.0001	0	4	0	0	0	; 
 	784	11	999999	0	0.0001	0	4	0	0	0	; 
 	785	48	999999	0	0.0001	0	4	0	0	0	; 
 	788	11	999999	0	0.0001	0	4	0	0	0	; 
 	789	48	999999	0	0.0001	0	4	0	0	0	; 
 	792	11	999999	0	0.0001	0	4	0	0	0	; 
 	794	43	999999	0	0.0001	0	4	0	0	0	; 
 	795	43	999999	0	0.0001	0	4	0	0	0	; 
 	796	40	999999	0	0.0001	0	4	0	0	0	; 
 	796	43	999999	0	0.0001	0	4	0	0	0	; 
 	800	40	999999	0	0.0001	0	4	0	0	0	; 
 	801	40	999999	0	0.0001	0	4	0	0	0	; 
 	804	19	999999	0	0.0001	0	4	0	0	0	; 
 	809	6	999999	0	0.0001	0	4	0	0	0	; 
 	817	1	999999	0	0.0001	0	4	0	0	0	; 
 	818	1	999999	0	0.0001	0	4	0	0	0	; 
 	821	1	999999	0	0.0001	0	4	0	0	0	; 
 	822	1	999999	0	0.0001	0	4	0	0	0	; 
 	826	26	999999	0	0.0001	0	4	0	0	0	; 
 	830	42	999999	0	0.0001	0	4	0	0	0	; 
 	835	97	999999	0	0.0001	0	4	0	0	0	; 
 	839	92	999999	0	0.0001	0	4	0	0	0	; 
 	844	46	999999	0	0.0001	0	4	0	0	0	; 
 	846	37	999999	0	0.0001	0	4	0	0	0	; 
 	846	45	999999	0	0.0001	0	4	0	0	0	; 
 	856	47	999999	0	0.0001	0	4	0	0	0	; 
 	857	47	999999	0	0.0001	0	4	0	0	0	; 
 	860	46	999999	0	0.0001	0	4	0	0	0	; 
 	861	46	999999	0	0.0001	0	4	0	0	0	; 
 	861	47	999999	0	0.0001	0	4	0	0	0	; 
 	863	46	999999	0	0.0001	0	4	0	0	0	; 
 	864	47	999999	0	0.0001	0	4	0	0	0	; 
 	868	18	999999	0	0.0001	0	4	0	0	0	; 
 	870	18	999999	0	0.0001	0	4	0	0	0	; 
 	875	23	999999	0	0.0001	0	4	0	0	0	; 
 	877	23	999999	0	0.0001	0	4	0	0	0	; 
 	878	23	999999	0	0.0001	0	4	0	0	0	; 
 	892	5	999999	0	0.0001	0	4	0	0	0	; 
 	893	5	999999	0	0.0001	0	4	0	0	0	; 
 	894	96	999999	0	0.0001	0	4	0	0	0	; 
 	897	40	999999	0	0.0001	0	4	0	0	0	; 
 	899	8	999999	0	0.0001	0	4	0	0	0	; 
 	900	8	999999	0	0.0001	0	4	0	0	0	; 
 	901	8	999999	0	0.0001	0	4	0	0	0	; 
 	902	9	999999	0	0.0001	0	4	0	0	0	; 
 	904	8	999999	0	0.0001	0	4	0	0	0	; 
 	912	42	999999	0	0.0001	0	4	0	0	0	; 
 	913	42	999999	0	0.0001	0	4	0	0	0	; 
 	915	42	999999	0	0.0001	0	4	0	0	0	; 
 	920	21	999999	0	0.0001	0	4	0	0	0	; 
 	922	21	999999	0	0.0001	0	4	0	0	0	; 
 	924	87	999999	0	0.0001	0	4	0	0	0	; 
 	925	87	999999	0	0.0001	0	4	0	0	0	; 
 	930	45	999999	0	0.0001	0	4	0	0	0	; 