<NUMBER OF ZONES>49
<TOTAL OD FLOW> Not calculated
<END OF METADATA>


Origin	1024
	1001 :	100.0;	1004 :	200.0;	1006 :	100.0;	1007 :	100.0;	1008 :	200.0;
	1009 :	200.0;	1010 :	800.0;	1011 :	600.0;	1012 :	500.0;	1013 :	700.0;
	1014 :	400.0;	1015 :	400.0;	1016 :	300.0;	1017 :	300.0;	1019 :	100.0;
	1020 :	400.0;	1021 :	500.0;	1022 :	1100.0;	1023 :	700.0;

Origin	1
	2016 :	200.0;	2 :	1000.0;	1011 :	300.0;

Origin	2001
	2016 :	500.0;	2017 :	400.0;	2018 :	100.0;	2019 :	300.0;	2020 :	300.0;
	2021 :	100.0;	2022 :	400.0;	2023 :	300.0;	2024 :	100.0;	2002 :	100.0;
	2003 :	100.0;	2004 :	500.0;	2005 :	200.0;	2006 :	300.0;	2007 :	500.0;
	2008 :	800.0;	2009 :	500.0;	2010 :	1300.0;	2011 :	500.0;	2012 :	200.0;
	2013 :	500.0;	2014 :	300.0;	2015 :	500.0;

Origin	2002
	2016 :	400.0;	2017 :	200.0;	2019 :	100.0;	2020 :	100.0;	2022 :	100.0;
	2001 :	100.0;	2003 :	100.0;	2004 :	200.0;	2005 :	100.0;	2006 :	400.0;
	2007 :	200.0;	2008 :	400.0;	2009 :	200.0;	2010 :	600.0;	2011 :	200.0;
	2012 :	100.0;	2013 :	300.0;	2014 :	100.0;	2015 :	100.0;

Origin	2003
	2016 :	200.0;	2017 :	100.0;	2022 :	100.0;	2023 :	100.0;	2001 :	100.0;
	2002 :	100.0;	2004 :	200.0;	2005 :	100.0;	2006 :	300.0;	2007 :	100.0;
	2008 :	200.0;	2009 :	100.0;	2010 :	300.0;	2011 :	300.0;	2012 :	200.0;
	2013 :	100.0;	2014 :	100.0;	2015 :	100.0;

Origin	2004
	2016 :	800.0;	2017 :	500.0;	2018 :	100.0;	2019 :	200.0;	2020 :	300.0;
	2021 :	200.0;	2022 :	400.0;	2023 :	500.0;	2024 :	200.0;	2001 :	500.0;
	2002 :	200.0;	2003 :	200.0;	2005 :	500.0;	2006 :	400.0;	2007 :	400.0;
	2008 :	700.0;	2009 :	700.0;	2010 :	1200.0;	2011 :	1400.0;	2012 :	600.0;
	2013 :	600.0;	2014 :	500.0;	2015 :	500.0;

Origin	2005
	2016 :	500.0;	2017 :	200.0;	2019 :	100.0;	2020 :	100.0;	2021 :	100.0;
	2022 :	200.0;	2023 :	100.0;	2001 :	200.0;	2002 :	100.0;	2003 :	100.0;
	2004 :	500.0;	2006 :	200.0;	2007 :	200.0;	2008 :	500.0;	2009 :	800.0;
	2010 :	1000.0;	2011 :	500.0;	2012 :	200.0;	2013 :	200.0;	2014 :	100.0;
	2015 :	200.0;

Origin	2006
	2016 :	900.0;	2017 :	500.0;	2018 :	100.0;	2019 :	200.0;	2020 :	300.0;
	2021 :	100.0;	2022 :	200.0;	2023 :	100.0;	2024 :	100.0;	2001 :	300.0;
	2002 :	400.0;	2003 :	300.0;	2004 :	400.0;	2005 :	200.0;	2007 :	400.0;
	2008 :	800.0;	2009 :	400.0;	2010 :	800.0;	2011 :	400.0;	2012 :	200.0;
	2013 :	200.0;	2014 :	100.0;	2015 :	200.0;

Origin	2007
	2016 :	1400.0;	2017 :	1000.0;	2018 :	200.0;	2019 :	400.0;	2020 :	500.0;
	2021 :	200.0;	2022 :	500.0;	2023 :	200.0;	2024 :	100.0;	2001 :	500.0;
	2002 :	200.0;	2003 :	100.0;	2004 :	400.0;	2005 :	200.0;	2006 :	400.0;
	2008 :	1000.0;	2009 :	600.0;	2010 :	1900.0;	2011 :	500.0;	2012 :	700.0;
	2013 :	400.0;	2014 :	200.0;	2015 :	500.0;

Origin	2008
	2016 :	2200.0;	2017 :	1400.0;	2018 :	300.0;	2019 :	700.0;	2020 :	900.0;
	2021 :	400.0;	2022 :	500.0;	2023 :	300.0;	2024 :	200.0;	2001 :	800.0;
	2002 :	400.0;	2003 :	200.0;	2004 :	700.0;	2005 :	500.0;	2006 :	800.0;
	2007 :	1000.0;	2009 :	800.0;	2010 :	1600.0;	2011 :	800.0;	2012 :	600.0;
	2013 :	600.0;	2014 :	400.0;	2015 :	600.0;

Origin	2009
	2016 :	1400.0;	2017 :	900.0;	2018 :	200.0;	2019 :	400.0;	2020 :	600.0;
	2021 :	300.0;	2022 :	700.0;	2023 :	500.0;	2024 :	200.0;	2001 :	500.0;
	2002 :	200.0;	2003 :	100.0;	2004 :	700.0;	2005 :	800.0;	2006 :	400.0;
	2007 :	600.0;	2008 :	800.0;	2010 :	2800.0;	2011 :	1400.0;	2012 :	600.0;
	2013 :	600.0;	2014 :	600.0;	2015 :	900.0;

Origin	2010
	2016 :	4400.0;	2017 :	3900.0;	2018 :	700.0;	2019 :	1800.0;	2020 :	2500.0;
	2021 :	1200.0;	2022 :	2600.0;	2023 :	1800.0;	2024 :	800.0;	2001 :	1300.0;
	2002 :	600.0;	2003 :	300.0;	2004 :	1200.0;	2005 :	1000.0;	2006 :	800.0;
	2007 :	1900.0;	2008 :	1600.0;	2009 :	2800.0;	2011 :	4000.0;	1019 :	1500.0;
	2012 :	2000.0;	2013 :	1900.0;	2014 :	2100.0;	2015 :	4000.0;

Origin	2011
	2016 :	1400.0;	2017 :	1000.0;	2018 :	100.0;	2019 :	400.0;	2020 :	600.0;
	2021 :	400.0;	2022 :	1100.0;	2023 :	1300.0;	2024 :	600.0;	2001 :	500.0;
	2002 :	200.0;	2003 :	300.0;	2004 :	1500.0;	2005 :	500.0;	2006 :	400.0;
	2007 :	500.0;	2008 :	800.0;	2009 :	1400.0;	2010 :	3900.0;	2012 :	1400.0;
	2013 :	1000.0;	2014 :	1600.0;	2015 :	1400.0;

Origin	2012
	2016 :	700.0;	2017 :	600.0;	2018 :	200.0;	2019 :	300.0;	2020 :	400.0;
	2021 :	300.0;	2022 :	700.0;	2023 :	700.0;	2024 :	500.0;	2001 :	200.0;
	2002 :	100.0;	2003 :	200.0;	2004 :	600.0;	2005 :	200.0;	2006 :	200.0;
	2007 :	700.0;	2008 :	600.0;	2009 :	600.0;	2010 :	2000.0;	2011 :	1400.0;
	2013 :	1300.0;	2014 :	700.0;	2015 :	700.0;

Origin	2013
	2016 :	600.0;	2017 :	500.0;	2018 :	100.0;	2019 :	300.0;	2020 :	600.0;
	2021 :	600.0;	2022 :	1300.0;	2023 :	800.0;	2024 :	800.0;	2001 :	500.0;
	2002 :	300.0;	2003 :	100.0;	2004 :	600.0;	2005 :	200.0;	2006 :	200.0;
	2007 :	400.0;	2008 :	600.0;	2009 :	600.0;	2010 :	1900.0;	2011 :	1000.0;
	2012 :	1300.0;	2014 :	600.0;	2015 :	700.0;

Origin	2014
	2016 :	700.0;	2017 :	700.0;	2018 :	100.0;	2019 :	300.0;	2020 :	500.0;
	2021 :	400.0;	2022 :	1200.0;	2023 :	1100.0;	2024 :	400.0;	2001 :	300.0;
	2002 :	100.0;	2003 :	100.0;	2004 :	500.0;	2005 :	100.0;	2006 :	100.0;
	2007 :	200.0;	2008 :	400.0;	2009 :	600.0;	2010 :	2100.0;	2011 :	1600.0;
	2012 :	700.0;	2013 :	600.0;	2015 :	1300.0;

Origin	2015
	2016 :	1200.0;	2017 :	1500.0;	2018 :	200.0;	2019 :	800.0;	2020 :	1100.0;
	2021 :	800.0;	2022 :	2600.0;	2023 :	1000.0;	2024 :	400.0;	2001 :	500.0;
	2002 :	100.0;	2003 :	100.0;	2004 :	500.0;	2005 :	200.0;	2006 :	200.0;
	2007 :	500.0;	2008 :	600.0;	2009 :	1000.0;	2010 :	4000.0;	2011 :	1400.0;
	2012 :	700.0;	2013 :	700.0;	2014 :	1300.0;

Origin	2016
	2017 :	2800.0;	2018 :	500.0;	2019 :	1300.0;	2020 :	1600.0;	2021 :	600.0;
	2022 :	1200.0;	2023 :	500.0;	2024 :	300.0;	2001 :	500.0;	2002 :	400.0;
	2003 :	200.0;	2004 :	800.0;	2005 :	500.0;	2006 :	900.0;	2007 :	1400.0;
	2008 :	2200.0;	2009 :	1400.0;	2010 :	4400.0;	2011 :	1400.0;	2012 :	700.0;
	2013 :	600.0;	2014 :	700.0;	2015 :	1200.0;

Origin	2017
	2016 :	2800.0;	2018 :	600.0;	2019 :	1700.0;	2020 :	1700.0;	2021 :	600.0;
	2022 :	1700.0;	2023 :	600.0;	2024 :	300.0;	2001 :	400.0;	2002 :	200.0;
	2003 :	100.0;	2004 :	500.0;	2005 :	200.0;	2006 :	500.0;	2007 :	1000.0;
	2008 :	1400.0;	2009 :	900.0;	2010 :	3900.0;	2011 :	1000.0;	2012 :	600.0;
	2013 :	500.0;	2014 :	700.0;	2015 :	1500.0;

Origin	2018
	2016 :	500.0;	2017 :	600.0;	2019 :	300.0;	2020 :	400.0;	2021 :	100.0;
	2022 :	300.0;	2023 :	100.0;	2001 :	100.0;	2004 :	100.0;	2006 :	100.0;
	2007 :	200.0;	2008 :	300.0;	2009 :	200.0;	2010 :	700.0;	2011 :	200.0;
	2012 :	200.0;	2013 :	100.0;	2014 :	100.0;	2015 :	200.0;

Origin	2019
	2016 :	1300.0;	2017 :	1700.0;	2018 :	300.0;	2 :	200.0;	2020 :	1200.0;
	2021 :	400.0;	2022 :	1200.0;	2023 :	300.0;	2024 :	100.0;	2001 :	300.0;
	2002 :	100.0;	2004 :	200.0;	2005 :	100.0;	2006 :	200.0;	2007 :	400.0;
	2008 :	700.0;	2009 :	400.0;	2010 :	1800.0;	2011 :	400.0;	2012 :	300.0;
	2013 :	300.0;	2014 :	300.0;	2015 :	800.0;

Origin	2020
	2016 :	1600.0;	2017 :	1700.0;	2018 :	400.0;	2019 :	1200.0;	2021 :	1200.0;
	2022 :	2400.0;	2023 :	700.0;	2024 :	400.0;	2001 :	300.0;	2002 :	100.0;
	2004 :	300.0;	2005 :	100.0;	2006 :	300.0;	2007 :	500.0;	2008 :	900.0;
	2009 :	600.0;	2010 :	2500.0;	2011 :	600.0;	2012 :	500.0;	2013 :	600.0;
	2014 :	500.0;	2015 :	1100.0;

Origin	2021
	2016 :	600.0;	2017 :	600.0;	2018 :	100.0;	2019 :	400.0;	2020 :	1200.0;
	2022 :	1800.0;	2023 :	700.0;	2024 :	500.0;	2001 :	100.0;	2004 :	200.0;
	2005 :	100.0;	2006 :	100.0;	2007 :	200.0;	2008 :	400.0;	2009 :	300.0;
	2010 :	1200.0;	2011 :	400.0;	2012 :	300.0;	2013 :	600.0;	2014 :	400.0;
	2015 :	800.0;

Origin	2022
	2016 :	1200.0;	2017 :	1700.0;	2018 :	300.0;	2019 :	1200.0;	2020 :	2400.0;
	2021 :	1800.0;	2023 :	2100.0;	2024 :	1100.0;	2001 :	400.0;	2002 :	100.0;
	2003 :	100.0;	2004 :	400.0;	2005 :	200.0;	2006 :	200.0;	2007 :	500.0;
	2008 :	500.0;	2009 :	700.0;	2010 :	2600.0;	2011 :	1100.0;	2012 :	700.0;
	2013 :	1300.0;	2014 :	1200.0;	2015 :	2600.0;

Origin	2023
	2016 :	500.0;	2017 :	600.0;	2018 :	100.0;	2019 :	300.0;	2020 :	700.0;
	2021 :	700.0;	2022 :	2100.0;	2024 :	700.0;	2001 :	300.0;	2003 :	100.0;
	2004 :	500.0;	2005 :	100.0;	2006 :	100.0;	2007 :	200.0;	2008 :	300.0;
	2009 :	500.0;	2010 :	1800.0;	2011 :	1300.0;	2012 :	700.0;	2013 :	800.0;
	2014 :	1100.0;	2015 :	1000.0;

Origin	2024
	2016 :	300.0;	2017 :	300.0;	2019 :	100.0;	2020 :	400.0;	2021 :	500.0;
	2022 :	1100.0;	2023 :	700.0;	2001 :	100.0;	2004 :	200.0;	2006 :	100.0;
	2007 :	100.0;	2008 :	200.0;	2009 :	200.0;	2010 :	800.0;	2011 :	600.0;
	2012 :	500.0;	2013 :	700.0;	2014 :	400.0;	2015 :	400.0;

Origin	1001
	1024 :	100.0;	1002 :	100.0;	1003 :	100.0;	1004 :	500.0;	1005 :	200.0;
	1006 :	300.0;	1007 :	500.0;	1008 :	800.0;	1009 :	500.0;	1010 :	1300.0;
	1011 :	500.0;	1012 :	200.0;	1013 :	500.0;	1014 :	300.0;	1015 :	500.0;
	1016 :	500.0;	1017 :	400.0;	1018 :	100.0;	1019 :	300.0;	1020 :	300.0;
	1021 :	100.0;	1022 :	400.0;	1023 :	300.0;

Origin	1002
	1001 :	100.0;	1003 :	100.0;	1004 :	200.0;	1005 :	100.0;	1006 :	400.0;
	1007 :	200.0;	1008 :	400.0;	1009 :	200.0;	1010 :	600.0;	1011 :	200.0;
	1012 :	100.0;	1013 :	300.0;	1014 :	100.0;	1015 :	100.0;	1016 :	400.0;
	1017 :	200.0;	1019 :	100.0;	1020 :	100.0;	1022 :	100.0;

Origin	1003
	1001 :	100.0;	1002 :	100.0;	1004 :	200.0;	1005 :	100.0;	1006 :	300.0;
	1007 :	100.0;	1008 :	200.0;	1009 :	100.0;	1010 :	300.0;	1011 :	300.0;
	1012 :	200.0;	1013 :	100.0;	1014 :	100.0;	1015 :	100.0;	1016 :	200.0;
	1017 :	100.0;	1022 :	100.0;	1023 :	100.0;

Origin	1004
	1024 :	200.0;	1001 :	500.0;	1002 :	200.0;	1003 :	200.0;	1005 :	500.0;
	1006 :	400.0;	1007 :	400.0;	1008 :	700.0;	1009 :	700.0;	1010 :	1200.0;
	1011 :	1400.0;	1012 :	600.0;	1013 :	600.0;	1014 :	500.0;	1015 :	500.0;
	1016 :	800.0;	1017 :	500.0;	1018 :	100.0;	1019 :	200.0;	1020 :	300.0;
	1021 :	200.0;	1022 :	400.0;	1023 :	500.0;

Origin	1005
	1001 :	200.0;	1002 :	100.0;	1003 :	100.0;	1004 :	500.0;	1006 :	200.0;
	1007 :	200.0;	1008 :	500.0;	1009 :	800.0;	1010 :	1000.0;	1011 :	500.0;
	1012 :	200.0;	1013 :	200.0;	1014 :	100.0;	1015 :	200.0;	1016 :	500.0;
	1017 :	200.0;	1019 :	100.0;	1020 :	100.0;	1021 :	100.0;	1022 :	200.0;
	1023 :	100.0;

Origin	1006
	1024 :	100.0;	1001 :	300.0;	1002 :	400.0;	1003 :	300.0;	1004 :	400.0;
	1005 :	200.0;	1007 :	400.0;	1008 :	800.0;	1009 :	400.0;	1010 :	800.0;
	1011 :	400.0;	1012 :	200.0;	1013 :	200.0;	1014 :	100.0;	1015 :	200.0;
	1016 :	900.0;	1017 :	500.0;	1018 :	100.0;	1019 :	200.0;	1020 :	300.0;
	1021 :	100.0;	1022 :	200.0;	1023 :	100.0;

Origin	1007
	1024 :	100.0;	1001 :	500.0;	1002 :	200.0;	1003 :	100.0;	1004 :	400.0;
	1005 :	200.0;	1006 :	400.0;	1008 :	1000.0;	1009 :	600.0;	1010 :	1900.0;
	1011 :	500.0;	1012 :	700.0;	1013 :	400.0;	1014 :	200.0;	1015 :	500.0;
	1016 :	1400.0;	1017 :	1000.0;	1018 :	200.0;	1019 :	400.0;	1020 :	500.0;
	1021 :	200.0;	1022 :	500.0;	1023 :	200.0;

Origin	1008
	1024 :	200.0;	1001 :	800.0;	1002 :	400.0;	1003 :	200.0;	1004 :	700.0;
	1005 :	500.0;	1006 :	800.0;	1007 :	1000.0;	1009 :	800.0;	1010 :	1600.0;
	1011 :	800.0;	1012 :	600.0;	1013 :	600.0;	1014 :	400.0;	1015 :	600.0;
	1016 :	2200.0;	1017 :	1400.0;	1018 :	300.0;	1019 :	700.0;	1020 :	900.0;
	1021 :	400.0;	1022 :	500.0;	1023 :	300.0;

Origin	1009
	1024 :	200.0;	1001 :	500.0;	1002 :	200.0;	1003 :	100.0;	1004 :	700.0;
	1005 :	800.0;	1006 :	400.0;	1007 :	600.0;	1008 :	800.0;	1010 :	2800.0;
	1011 :	1400.0;	1012 :	600.0;	1013 :	600.0;	1014 :	600.0;	1015 :	900.0;
	1016 :	1400.0;	1017 :	900.0;	1018 :	200.0;	1019 :	400.0;	1020 :	600.0;
	1021 :	300.0;	1022 :	700.0;	1023 :	500.0;

Origin	1010
	1024 :	800.0;	1001 :	1300.0;	1002 :	600.0;	1003 :	300.0;	1004 :	1200.0;
	1005 :	1000.0;	1006 :	800.0;	1007 :	1900.0;	1008 :	1600.0;	1009 :	2800.0;
	1011 :	4000.0;	1012 :	2000.0;	1013 :	1900.0;	1014 :	2100.0;	1015 :	4000.0;
	1016 :	4400.0;	1017 :	3900.0;	1018 :	700.0;	1019 :	1800.0;	1020 :	2500.0;
	1021 :	1200.0;	1022 :	2600.0;	1023 :	1800.0;

Origin	1011
	1024 :	600.0;	1001 :	500.0;	1002 :	200.0;	1003 :	300.0;	1004 :	1500.0;
	1005 :	500.0;	1006 :	400.0;	1007 :	500.0;	1008 :	800.0;	1009 :	1400.0;
	1010 :	3900.0;	1012 :	1400.0;	1013 :	1000.0;	1014 :	1600.0;	1015 :	1400.0;
	1016 :	1400.0;	1017 :	1000.0;	1018 :	100.0;	1019 :	400.0;	1020 :	600.0;
	1021 :	400.0;	1022 :	1100.0;	1023 :	1300.0;

Origin	1012
	1024 :	500.0;	1001 :	200.0;	1002 :	100.0;	1003 :	200.0;	1004 :	600.0;
	1005 :	200.0;	1006 :	200.0;	1007 :	700.0;	1008 :	600.0;	1009 :	600.0;
	1010 :	2000.0;	1011 :	1400.0;	1013 :	1300.0;	1014 :	700.0;	1015 :	700.0;
	1016 :	700.0;	1017 :	600.0;	1018 :	200.0;	1019 :	300.0;	1020 :	400.0;
	1021 :	300.0;	1022 :	700.0;	1023 :	700.0;	2015 :	500.0;

Origin	1013
	1024 :	800.0;	1001 :	500.0;	1002 :	300.0;	1003 :	100.0;	1004 :	600.0;
	1005 :	200.0;	1006 :	200.0;	1007 :	400.0;	1008 :	600.0;	1009 :	600.0;
	1010 :	1900.0;	1011 :	1000.0;	1012 :	1300.0;	1014 :	600.0;	1015 :	700.0;
	1016 :	600.0;	1017 :	500.0;	1018 :	100.0;	1019 :	300.0;	1020 :	600.0;
	1021 :	600.0;	1022 :	1300.0;	1023 :	800.0;

Origin	1014
	1024 :	400.0;	1001 :	300.0;	1002 :	100.0;	1003 :	100.0;	1004 :	500.0;
	1005 :	100.0;	1006 :	100.0;	1007 :	200.0;	1008 :	400.0;	1009 :	600.0;
	1010 :	2100.0;	1011 :	1600.0;	1012 :	700.0;	1013 :	600.0;	1015 :	1300.0;
	1016 :	700.0;	1017 :	700.0;	1018 :	100.0;	1019 :	300.0;	1020 :	500.0;
	1021 :	400.0;	1022 :	1200.0;	1023 :	1100.0;

Origin	1015
	1024 :	400.0;	1001 :	500.0;	1002 :	100.0;	1003 :	100.0;	1004 :	500.0;
	1005 :	200.0;	1006 :	200.0;	1007 :	500.0;	1008 :	600.0;	1009 :	1000.0;
	1010 :	4000.0;	1011 :	1400.0;	1012 :	700.0;	1013 :	700.0;	1014 :	1300.0;
	1016 :	1200.0;	1017 :	1500.0;	1018 :	200.0;	1019 :	800.0;	1020 :	1100.0;
	1021 :	800.0;	1022 :	2600.0;	1023 :	1000.0;

Origin	1016
	1024 :	300.0;	1001 :	500.0;	1002 :	400.0;	1003 :	200.0;	1004 :	800.0;
	1005 :	500.0;	1006 :	900.0;	1007 :	1400.0;	1008 :	2200.0;	1009 :	1400.0;
	1010 :	4400.0;	1011 :	1400.0;	1012 :	700.0;	1013 :	600.0;	1014 :	700.0;
	1015 :	1200.0;	1017 :	2800.0;	1018 :	500.0;	1019 :	1300.0;	1020 :	1600.0;
	1021 :	600.0;	1022 :	1200.0;	1023 :	500.0;

Origin	1017
	1024 :	300.0;	1001 :	400.0;	1002 :	200.0;	1003 :	100.0;	1004 :	500.0;
	1005 :	200.0;	1006 :	500.0;	1007 :	1000.0;	1008 :	1400.0;	1009 :	900.0;
	1010 :	3900.0;	1011 :	1000.0;	1012 :	600.0;	1013 :	500.0;	1014 :	700.0;
	1015 :	1500.0;	1016 :	2800.0;	1018 :	600.0;	1019 :	1700.0;	1020 :	1700.0;
	1021 :	600.0;	1022 :	1700.0;	1023 :	600.0;

Origin	1018
	1001 :	100.0;	1004 :	100.0;	1006 :	100.0;	1007 :	200.0;	1008 :	300.0;
	1009 :	200.0;	1010 :	700.0;	1011 :	200.0;	1012 :	200.0;	1013 :	100.0;
	1014 :	100.0;	1015 :	200.0;	1016 :	500.0;	1017 :	600.0;	1019 :	300.0;
	1020 :	400.0;	1021 :	100.0;	1022 :	300.0;	1023 :	100.0;

Origin	1019
	1024 :	100.0;	1001 :	300.0;	1002 :	100.0;	1004 :	200.0;	1005 :	100.0;
	1006 :	200.0;	1007 :	400.0;	1008 :	700.0;	1009 :	400.0;	1010 :	1800.0;
	1011 :	400.0;	1012 :	300.0;	1013 :	300.0;	1014 :	300.0;	1015 :	800.0;
	1016 :	1300.0;	1017 :	1700.0;	1018 :	300.0;	1020 :	1200.0;	1021 :	400.0;
	1022 :	1200.0;	1023 :	300.0;

Origin	1020
	1024 :	400.0;	1001 :	300.0;	1002 :	100.0;	1004 :	300.0;	1005 :	100.0;
	1006 :	300.0;	1007 :	500.0;	1008 :	900.0;	1009 :	600.0;	1010 :	2500.0;
	1011 :	600.0;	1012 :	500.0;	1013 :	600.0;	1014 :	500.0;	1015 :	1100.0;
	1016 :	1600.0;	1017 :	1700.0;	1018 :	400.0;	1019 :	1200.0;	1021 :	1200.0;
	1022 :	2400.0;	1023 :	700.0;

Origin	1021
	1024 :	500.0;	1001 :	100.0;	1004 :	200.0;	1005 :	100.0;	1006 :	100.0;
	1007 :	200.0;	1008 :	400.0;	1009 :	300.0;	1010 :	1200.0;	1011 :	400.0;
	1012 :	300.0;	1013 :	600.0;	1014 :	400.0;	1015 :	800.0;	1016 :	600.0;
	1017 :	600.0;	1018 :	100.0;	1019 :	400.0;	1020 :	1200.0;	1022 :	1800.0;
	1023 :	700.0;

Origin	1022
	1024 :	1100.0;	1001 :	400.0;	1002 :	100.0;	1003 :	100.0;	1004 :	400.0;
	1005 :	200.0;	1006 :	200.0;	1007 :	500.0;	1008 :	500.0;	1009 :	700.0;
	1010 :	2600.0;	1011 :	1100.0;	1012 :	700.0;	1013 :	1300.0;	1014 :	1200.0;
	1015 :	2600.0;	1016 :	1200.0;	1017 :	1700.0;	1018 :	300.0;	1019 :	1200.0;
	1020 :	2400.0;	1021 :	1800.0;	1023 :	2100.0;

Origin	1023
	1024 :	700.0;	2 :	300.0;	1001 :	300.0;	1003 :	100.0;	1004 :	500.0;
	1005 :	100.0;	1006 :	100.0;	1007 :	200.0;	1008 :	300.0;	1009 :	500.0;
	1010 :	1800.0;	1011 :	1300.0;	1012 :	700.0;	1013 :	800.0;	1014 :	1100.0;
	1015 :	1000.0;	1016 :	500.0;	1017 :	600.0;	1018 :	100.0;	1019 :	300.0;
	1020 :	700.0;	1021 :	700.0;	1022 :	2100.0;




