<NUMBER OF ZONES> 4 
<TOTAL OD FLOW>  60000 
<END OF METADATA>


Origin 1 
    36 :    20000;

Origin 6 
    31 :    40000;

